/*--------------------------------*- C++ -*----------------------------------*\
| =========                 |                                                 |
| \\      /  F ield         | OpenFOAM: The Open Source CFD Toolbox           |
|  \\    /   O peration     | Version:  v2012                                 |
|   \\  /    A nd           | Website:  www.openfoam.com                      |
|    \\/     M anipulation  |                                                 |
\*---------------------------------------------------------------------------*/
FoamFile
{
    version     2.0;
    format      ascii;
    class       volScalarField;
    object      nuTilda; // Spalart-Allmaras turbulence model --> turbulent vicosity
}
// * * * * * * * * * * * * * * * * * * * * * * * * * * * * * * * * * * * * * //

dimensions      [0 2 -1 0 0 0 0];

internalField   uniform 7.5e-5;

boundaryField
{
    inlet-I
    {
        type            fixedValue;
        value           $internalField;
    }

    "(outlet|inletWall-III|topWall)"
    {
        type		zeroGradient;
    }

    internalWall
    {
        type            fixedValue;
        value           uniform 0;
    }

    #include "include/patchesWedges"
}

// ************************************************************************* //
